5    
Iteration 0 Energy -4.27246355
C        0.0051187100   -0.0106204967    0.0060142789
H        0.5496679579    0.7554384159   -0.5969811949
H        0.7497641015   -0.5879438960    0.5852846270
H       -0.5867525593   -0.6521358169   -0.6760916216
H       -0.7177982155    0.4952617989    0.6817739000
5    
Iteration 1 Energy -4.27424477
C        0.0013409319   -0.0033657488    0.0018083753
H        0.5302834360    0.7437119590   -0.5842542572
H        0.7193406607   -0.5821494393    0.5711771750
H       -0.5599249601   -0.6509513902   -0.6649404651
H       -0.6910400737    0.4927546246    0.6762091614
5    
Iteration 2 Energy -4.27426983
C        0.0003082509   -0.0007819438    0.0004132554
H        0.5289173595    0.7456348456   -0.5853046603
H        0.7154153823   -0.5847895748    0.5711346592
H       -0.5560857140   -0.6541317393   -0.6648443950
H       -0.6885552840    0.4940684175    0.6786011302
5    
Iteration 3 Energy -4.27427099
C        0.0000123768   -0.0000374207    0.0000181827
H        0.5289531610    0.7461680807   -0.5856711056
H        0.7146340829   -0.5854070041    0.5711449967
H       -0.5553722439   -0.6550573972   -0.6648776672
H       -0.6882273820    0.4943337466    0.6793855828
5    
Iteration 4 Energy -4.27427100
C        0.0000026274   -0.0000077699    0.0000036931
H        0.5289945225    0.7461396375   -0.5856627194
H        0.7146469421   -0.5853795018    0.5711309760
H       -0.5553948703   -0.6550422874   -0.6648501833
H       -0.6882492270    0.4942899269    0.6793782230
